Version 4
SHEET 1 2204 1184
WIRE -80 64 -528 64
WIRE 112 64 -80 64
WIRE 272 64 112 64
WIRE 336 64 272 64
WIRE 480 64 416 64
WIRE 688 64 480 64
WIRE 832 64 688 64
WIRE 992 64 832 64
WIRE -80 112 -80 64
WIRE 688 160 688 144
WIRE 832 160 832 128
WIRE 832 160 688 160
WIRE 864 160 832 160
WIRE 944 160 928 160
WIRE 992 160 944 160
WIRE 1280 160 1120 160
WIRE 1424 160 1344 160
WIRE 1520 160 1424 160
WIRE 1616 160 1520 160
WIRE 1824 160 1616 160
WIRE 1920 160 1824 160
WIRE 2128 160 1920 160
WIRE -528 176 -528 64
WIRE 2128 224 2128 160
WIRE 240 336 0 336
WIRE 368 336 240 336
WIRE 464 336 368 336
WIRE 576 336 528 336
WIRE 992 336 992 288
WIRE 992 336 656 336
WIRE 0 352 0 336
WIRE 1376 384 1296 384
WIRE 1824 384 1824 160
WIRE 1824 384 1376 384
WIRE 944 400 944 160
WIRE -208 432 -304 432
WIRE -96 432 -208 432
WIRE 1296 432 1296 384
WIRE 1376 432 1376 384
WIRE 1824 432 1824 384
WIRE -208 480 -208 432
WIRE 416 480 336 480
WIRE 624 480 496 480
WIRE 656 480 624 480
WIRE 768 480 720 480
WIRE 896 480 768 480
WIRE -304 496 -304 432
WIRE -96 496 -96 432
WIRE 336 512 336 480
WIRE 768 512 768 480
WIRE 1376 544 1376 512
WIRE 1424 544 1376 544
WIRE 1536 544 1488 544
WIRE 1664 544 1616 544
WIRE 1824 544 1824 512
WIRE 1824 544 1728 544
WIRE 1824 560 1824 544
WIRE -304 624 -304 560
WIRE -208 624 -208 560
WIRE -208 624 -304 624
WIRE 64 624 -208 624
WIRE 1024 624 64 624
WIRE 1296 624 1296 512
WIRE 1296 624 1216 624
WIRE 1376 624 1376 544
WIRE 768 656 768 592
WIRE 848 656 768 656
WIRE 768 688 768 656
WIRE 1552 704 1472 704
WIRE 1024 720 880 720
WIRE 1472 720 1472 704
WIRE 1472 720 1216 720
WIRE 624 736 624 480
WIRE 704 736 624 736
WIRE 848 752 848 656
FLAG 1424 224 0
FLAG 1520 224 0
FLAG 1616 224 0
FLAG 1120 64 0
FLAG 1376 688 0
FLAG 1552 784 0
FLAG 1824 640 0
FLAG 880 720 COM
FLAG 992 192 COM
FLAG 480 128 COM
FLAG 272 128 COM
FLAG 336 592 COM
FLAG 944 496 COM
FLAG 368 400 COM
FLAG 240 400 COM
FLAG 0 432 COM
FLAG -528 256 COM
FLAG -80 176 COM
FLAG 112 128 COM
FLAG 784 1136 COM
FLAG 848 1136 0
FLAG -96 576 0
FLAG 64 624 CTL
FLAG 2128 304 0
FLAG 768 784 COM
FLAG 848 832 COM
FLAG 1920 224 0
SYMBOL ind 320 80 R270
WINDOW 0 32 56 VTop 2
WINDOW 3 5 56 VBottom 2
SYMATTR InstName L1
SYMATTR Value 4.7µ
SYMBOL cap 256 64 R0
SYMATTR InstName C1
SYMATTR Value 22µ
SYMBOL cap 464 64 R0
SYMATTR InstName C2
SYMATTR Value 1µ
SYMBOL res 672 48 R0
SYMATTR InstName R1
SYMATTR Value 50k
SYMBOL cap 816 64 R0
SYMATTR InstName C3
SYMATTR Value 10n
SYMBOL diode 928 144 R90
WINDOW 0 0 32 VBottom 2
WINDOW 3 32 32 VTop 2
SYMATTR InstName D2
SYMBOL voltage 336 496 R0
WINDOW 123 0 0 Left 0
WINDOW 39 0 0 Left 0
SYMATTR InstName V1
SYMATTR Value PULSE(0 12 0 1n 1n 0.000002 0.000004 2500)
SYMBOL res 672 320 R90
WINDOW 0 0 56 VBottom 2
WINDOW 3 32 56 VTop 2
SYMATTR InstName R2
SYMATTR Value 50
SYMBOL diode 1280 176 R270
WINDOW 0 32 32 VTop 2
WINDOW 3 0 32 VBottom 2
SYMATTR InstName D1
SYMBOL cap 1408 160 R0
SYMATTR InstName C4
SYMATTR Value 2.2µ
SYMBOL cap 1504 160 R0
SYMATTR InstName C5
SYMATTR Value 2.2µ
SYMBOL cap 1600 160 R0
SYMATTR InstName C6
SYMATTR Value 100µ
SYMBOL res 1808 416 R0
SYMATTR InstName R3
SYMATTR Value 41.2k
SYMBOL res 1808 544 R0
SYMATTR InstName R4
SYMATTR Value 13.3k
SYMBOL res 1632 528 R90
WINDOW 0 0 56 VBottom 2
WINDOW 3 32 56 VTop 2
SYMATTR InstName R5
SYMATTR Value 7.15k
SYMBOL cap 1728 528 R90
WINDOW 0 0 32 VBottom 2
WINDOW 3 32 32 VTop 2
SYMATTR InstName C7
SYMATTR Value 6.8n
SYMBOL cap 1360 624 R0
SYMATTR InstName C8
SYMATTR Value 1µ
SYMBOL res 1360 416 R0
SYMATTR InstName R6
SYMATTR Value 10k
SYMBOL res 1280 416 R0
SYMATTR InstName R7
SYMATTR Value 470
SYMBOL PC817D 1120 672 M0
SYMATTR InstName U2
SYMBOL diode 1488 528 R90
WINDOW 0 0 32 VBottom 2
WINDOW 3 32 32 VTop 2
SYMATTR InstName D3
SYMBOL voltage 1552 688 R0
WINDOW 123 0 0 Left 0
WINDOW 39 0 0 Left 0
SYMATTR InstName V2
SYMATTR Value 2
SYMBOL diode 528 320 R90
WINDOW 0 0 32 VBottom 2
WINDOW 3 32 32 VTop 2
SYMATTR InstName D4
SYMBOL cap 224 336 R0
SYMATTR InstName C9
SYMATTR Value .22µ
SYMBOL cap 352 336 R0
SYMATTR InstName C10
SYMATTR Value 10µ
SYMBOL res -16 336 R0
SYMATTR InstName R8
SYMATTR Value 10
SYMBOL res -224 464 R0
SYMATTR InstName R9
SYMATTR Value 2k
SYMBOL zener -64 176 R180
WINDOW 0 24 64 Left 2
WINDOW 3 24 0 Left 2
SYMATTR InstName D5
SYMATTR Value 1N5369B
SYMATTR Description Diode
SYMATTR Type diode
SYMBOL cap 96 64 R0
SYMATTR InstName C11
SYMATTR Value 100n
SYMBOL res 512 464 R90
WINDOW 0 0 56 VBottom 2
WINDOW 3 32 56 VTop 2
SYMATTR InstName R10
SYMATTR Value 50
SYMBOL cap 848 1120 R90
WINDOW 0 0 32 VBottom 2
WINDOW 3 32 32 VTop 2
SYMATTR InstName C13
SYMATTR Value 1n
SYMBOL voltage -96 480 R0
WINDOW 123 0 0 Left 0
WINDOW 39 0 0 Left 0
SYMATTR InstName V4
SYMATTR Value 5
SYMBOL cap -320 496 R0
SYMATTR InstName C14
SYMATTR Value 47n
SYMBOL res 2112 208 R0
SYMATTR InstName R11
SYMATTR Value 24
SYMBOL 750311306 992 64 R0
SYMATTR InstName T1
SYMBOL pnp 704 784 M180
SYMATTR InstName Q1
SYMBOL diode 656 496 R270
WINDOW 0 32 32 VTop 2
WINDOW 3 0 32 VBottom 2
SYMATTR InstName D6
SYMATTR Value BAS16HY
SYMBOL res 832 736 R0
SYMATTR InstName R12
SYMATTR Value 10k
SYMBOL res 752 496 R0
SYMATTR InstName R13
SYMATTR Value 0.001
SYMBOL BUK9Y113-100E 896 400 R0
SYMATTR InstName U3
SYMBOL voltage -528 160 R0
WINDOW 123 0 0 Left 0
WINDOW 39 0 0 Left 0
SYMATTR InstName V3
SYMATTR Value 45
SYMBOL cap 1904 160 R0
SYMATTR InstName C12
SYMATTR Value 100n
TEXT -224 808 Left 2 !.tran 0 2m 0 .1m
